Casos/14barrasIEEE.pwf
TITU
14barrasIEEE                                                       
DCTE
(Mn) ( Val) (Mn) ( Val) (Mn) ( Val) (Mn) ( Val) (Mn) ( Val) (Mn) ( Val)
TEPA  0.01
TEPR  0.01
99999
DBAR
(Num)OETGb(   nome   )Gl( V)( A)( Pg)( Qg)( Qn)( Qm)(Bc  )( Pl)( Ql)( Sh)Are(Vf)M(1)(2)(3)(4)(5)(6)(7)(8)(9)(10
    1 L2 1BARRA---1     1060  0.232.4-16.9-80.0 80.0        0.0  0.0       11000
    2 L1 1BARRA---2     1045 -5. 40.0 42.4-80.0 80.0       21.7 12.7       11000
    3 L1 1BARRA---3     1010-13.  0.0 23.4-80.0 80.0       94.2 19.0       11000
    4 L  1BARRA---4     1019-10.  0.0  0.0  0.0  0.0       47.8 -3.9       11000
    5 L  1BARRA---5     1020 -9.  0.0  0.0  0.0  0.0        7.6  1.6       11000
    6 L1 1BARRA---6     1070-14.  0.0 12.2-80.0 80.0       11.2  7.5       11000
    7 L  1BARRA---7     1062-13.  0.0  0.0  0.0  0.0        0.0  0.0       11000
    8 L1 1BARRA---8     1090-13.  0.0 17.4-80.0 80.0        0.0  0.0   19  11000
    9 L  1BARRA---9     1056-15.  0.0  0.0  0.0  0.0       29.5 16.6       11000                                   
   10 L  1BARRA--10     1051-15.  0.0  0.0  0.0  0.0        9.0  5.8       11000                                   
   11 L  1BARRA--11     1057-15.  0.0  0.0  0.0  0.0        3.5  1.8       11000                                   
   12 L  1BARRA--12     1055-15.  0.0  0.0  0.0  0.0        6.1  1.6       11000                                   
   13 L  1BARRA--13     1050-15.  0.0  0.0  0.0  0.0       13.5  5.8       11000                                   
   14 L  1BARRA--14     1036-16.  0.0  0.0  0.0  0.0       14.9  5.0       11000
99999
DLIN
(De )d O d(Pa )NcEP ( R% )( X% )(Mvar)(Tap)(Tmn)(Tmx)(Phs)(Bc  )(Cn)(Ce)Ns(Cq)(1)(2)(3)(4)(5)(6)(7)(8)(9)(10
    1         2 1   1.938 5.917  5.28                                                                        
    1         5 1   5.403 22.304 4.92                                                                        
    2         3 1   4.699 19.797 4.38                                                                        
    2         4 1   5.811 17.632 3.40                                                                        
    2         5 1   5.695 17.388 3.46                                                                        
    3         4 1   6.701 17.103 1.28                                                                        
    4         5 1   1.335 4.211                                                                             
    4         7 1   0.0   20.912      0.978                                                                   
    4         9 1   0.0   55.618      0.969                                                                   
    5         6 1   0.0   25.202      0.932                                                                   
    6        11 1   9.498 19.890                                                                             
    6        12 1   12.29125.581                                                                             
    6        13 1   6.615 13.027                                                                             
    7         8 1   0.0   17.615                                                                             
    7         9 1   0.0   11.001                                                                             
    9        10 1   3.181 8.450                                                                              
    9        14 1   12.71127.038                                                                             
   10        11 1   8.205 19.207                                                                             
   12        13 1   22.09219.988                                                                             
   13        14 1   17.09334.802                                                                             
99999
FIM